/*--------------------------------*- C++ -*----------------------------------*\
  =========                 |
  \\      /  F ield         | OpenFOAM: The Open Source CFD Toolbox
   \\    /   O peration     | Website:  https://openfoam.org
    \\  /    A nd           | Version:  9
     \\/     M anipulation  |
\*---------------------------------------------------------------------------*/
FoamFile
{
    format      ascii;
    class       dictionary;
    object      blockMeshDict;
}
// * * * * * * * * * * * * * * * * * * * * * * * * * * * * * * * * * * * * * //

convertToMeters 0.1;

vertices
(
    (0 1 0)
    (20 1 0)
    (20 0 0)
    (320 0 0)
    (320 2 0)
    (0 2 0)
    (0 1 0.1)
    (20 1 0.1)
    (20 0 0.1)
    (320 0 0.1)
    (320 2 0.1)
    (0 2 0.1)
);

blocks
(
    hex (0 1 2 3 4 5 6 7 8 9 10 11) (10 10 1) 
);

edges
(
);

boundary
(
    inlet     
    { 
        type            patch; 
        nFaces          50; 
        startFace       10325; 
    } 
    outlet 
    { 
        type            patch; 
        nFaces          40; 
        startFace       10375; 
    } 
    fixedWalls
    {
        type wall;
        faces
        (
            (3 12 15 6)
            (0 9 12 3)
            (0 1 10 9)
            (1 2 11 10)
            (2 5 14 11)
            (5 8 17 14)
        );
    }
    frontAndBack
    {
        type empty;
        faces
        (
            (0 3 4 1)
            (1 4 5 2)
            (3 6 7 4)
            (4 7 8 5)
            (9 10 13 12)
            (10 11 14 13)
            (12 13 16 15)
            (13 14 17 16)
        );
    }
);

mergePatchPairs
(
);

// ************************************************************************* //
